simulator lang=spectre
include "nch.scs"
