// Generated for: spectre
// Generated on: Oct 10 22:26:51 2019
// Design library name: Lab1
// Design cell name: nmos
// Design view name: schematic
simulator lang=spectre
global 0
include "/CMC/tools/cadence/IC5141USR6_lnx86/tools/dfII/samples/artist/ahdlLib/quantity.spectre"
